Questionable use of curly braces in "b1 energie 0 v={idt(v(in)*-i(r2))/3600}"
    Error: undefined symbol in: "[idt](v(in)*-i(r2))/3600"
Circuit: * H:\aa\Projekte\Mutteruhr\Hardware\Simulation_OPV_only\Simulation_OPV_only.asc

c3: Increased Cpar to 1e-11
WARNING: Less than two connections to node energie.  This node is used by b1.
Direct Newton iteration failed to find .op point.  (Use ".option noopiter" to skip.)
Starting Gmin stepping
Gmin = 10
Gmin = 1.07374
Gmin = 0.115292
Gmin = 0.0123794
Gmin = 0.00132923
Gmin = 0.000142725
Gmin = 1.5325e-05
Gmin = 1.6455e-06
Gmin = 1.76685e-07
Gmin = 1.89714e-08
Gmin = 2.03704e-09
Gmin = 2.18725e-10
Gmin = 2.34854e-11
Gmin = 2.52173e-12
Gmin = 2.70769e-13
Gmin = 0
Gmin stepping succeeded in finding the operating point.


Date: Sun Dec 17 18:03:30 2023
Total elapsed time: 22.212 seconds.

tnom = 27
temp = 27
method = modified trap
totiter = 1003623
traniter = 1003242
tranpoints = 396595
accept = 395110
rejected = 1485
matrix size = 20
fillins = 5
solver = Normal
Avg thread counts: 1.0/1.0/1.0/1.0
Matrix Compiler1:      64 opcodes  0.7/0.4/[0.4]
Matrix Compiler2: off
